Version 4
SHEET 1 880 680
WIRE 16 80 -64 80
WIRE 160 80 96 80
WIRE 272 80 160 80
WIRE 432 80 352 80
WIRE 448 80 432 80
WIRE -64 112 -64 80
WIRE 160 112 160 80
WIRE 432 112 432 80
WIRE -64 224 -64 192
WIRE 160 224 160 176
WIRE 160 224 -64 224
WIRE 432 224 432 192
WIRE 432 224 160 224
WIRE -64 256 -64 224
FLAG -64 256 0
FLAG 448 80 Vo
IOPIN 448 80 Out
SYMBOL voltage -64 96 R0
WINDOW 123 22 97 Left 2
WINDOW 39 0 0 Left 0
SYMATTR InstName V1
SYMATTR Value ""
SYMATTR Value2 AC 1 0
SYMBOL ind 0 96 R270
WINDOW 0 32 56 VTop 2
WINDOW 3 5 56 VBottom 2
SYMATTR InstName L1
SYMATTR Value 1.5
SYMBOL ind 256 96 R270
WINDOW 0 32 56 VTop 2
WINDOW 3 5 56 VBottom 2
SYMATTR InstName L3
SYMATTR Value 0.5
SYMBOL res 416 96 R0
SYMATTR InstName R1
SYMATTR Value 1
SYMBOL cap 144 112 R0
SYMATTR InstName C1
SYMATTR Value 1.3333
TEXT 0 256 Left 2 !.ac dec 1000 0.01 10
