Version 4
SHEET 1 1208 680
WIRE 560 -80 160 -80
WIRE 736 -64 624 -64
WIRE 864 -64 736 -64
WIRE 1024 -64 928 -64
WIRE 1120 -64 1024 -64
WIRE 560 -48 544 -48
WIRE 1024 -16 1024 -64
WIRE -16 80 -128 80
WIRE 48 80 -16 80
WIRE 160 80 160 -80
WIRE 160 80 112 80
WIRE 240 80 160 80
WIRE 384 80 320 80
WIRE 432 80 384 80
WIRE 544 80 544 -48
WIRE 544 80 512 80
WIRE 608 80 544 80
WIRE 736 80 736 -64
WIRE 736 80 688 80
WIRE 784 80 736 80
WIRE 896 80 848 80
WIRE 1024 96 1024 64
WIRE 160 128 160 80
WIRE -128 144 -128 80
WIRE 544 224 544 80
WIRE 544 224 480 224
WIRE 384 240 384 80
WIRE 416 240 384 240
WIRE -128 256 -128 224
WIRE 160 256 160 208
WIRE 896 256 896 80
WIRE 896 256 480 256
WIRE -16 368 -16 80
WIRE 352 368 -16 368
WIRE 896 368 896 256
WIRE 896 368 432 368
FLAG -128 256 0
FLAG 160 256 0
FLAG 1120 -64 Vo
IOPIN 1120 -64 Out
FLAG -128 80 Vi
FLAG 1024 96 0
SYMBOL voltage -128 128 R0
WINDOW 123 22 106 Left 2
WINDOW 39 0 0 Left 0
SYMATTR InstName V1
SYMATTR Value ""
SYMATTR Value2 AC 1 0
SYMBOL cap 112 64 R90
WINDOW 0 0 32 VBottom 2
WINDOW 3 32 32 VTop 2
SYMATTR InstName C1
SYMATTR Value 530.52n
SYMBOL res 144 112 R0
SYMATTR InstName R1
SYMATTR Value 707.1
SYMBOL res 336 64 R90
WINDOW 0 0 56 VBottom 2
WINDOW 3 32 56 VTop 2
SYMATTR InstName R2
SYMATTR Value 628.9
SYMBOL res 528 64 R90
WINDOW 0 0 56 VBottom 2
WINDOW 3 32 56 VTop 2
SYMATTR InstName R3
SYMATTR Value 1590
SYMBOL res 704 64 R90
WINDOW 0 0 56 VBottom 2
WINDOW 3 32 56 VTop 2
SYMATTR InstName R4
SYMATTR Value 1590
SYMBOL res 448 352 R90
WINDOW 0 0 56 VBottom 2
WINDOW 3 32 56 VTop 2
SYMATTR InstName R5
SYMATTR Value 1590
SYMBOL cap 848 64 R90
WINDOW 0 0 32 VBottom 2
WINDOW 3 32 32 VTop 2
SYMATTR InstName C2
SYMATTR Value 530.52n
SYMBOL OpAmps\\opamp 448 176 M0
SYMATTR InstName U1
SYMBOL OpAmps\\opamp 592 0 M180
SYMATTR InstName U2
SYMBOL cap 928 -80 R90
WINDOW 0 0 32 VBottom 2
WINDOW 3 32 32 VTop 2
SYMATTR InstName C3
SYMATTR Value 530.52n
SYMBOL res 1008 -32 R0
SYMATTR InstName R6
SYMATTR Value 1000
TEXT 936 344 Left 2 !.lib opamp.sub
TEXT 936 312 Left 2 !.ac dec 1000 0.1 10k
