Version 4
SHEET 1 880 680
WIRE 208 -64 48 -64
WIRE 368 -64 208 -64
WIRE 48 -32 48 -64
WIRE 208 -32 208 -64
WIRE -96 96 -176 96
WIRE 48 96 48 48
WIRE 48 96 -16 96
WIRE 96 96 48 96
WIRE 208 96 208 32
WIRE 208 96 176 96
WIRE 256 96 208 96
WIRE 368 112 368 -64
WIRE 368 112 320 112
WIRE 416 112 368 112
WIRE 560 112 496 112
WIRE -176 128 -176 96
WIRE 256 128 208 128
WIRE 560 128 560 112
WIRE 48 144 48 96
WIRE 208 144 208 128
WIRE 48 224 48 208
WIRE -176 240 -176 208
WIRE 560 240 560 192
FLAG 48 224 0
FLAG 208 144 0
FLAG -176 240 0
FLAG 560 240 0
SYMBOL res 512 96 R90
WINDOW 0 0 56 VBottom 2
WINDOW 3 32 56 VTop 2
SYMATTR InstName R4
SYMATTR Value 100k
SYMBOL cap 544 128 R0
SYMATTR InstName C3
SYMATTR Value 8.38n
SYMBOL voltage -176 112 R0
WINDOW 123 61 64 Left 2
WINDOW 39 0 0 Left 0
SYMATTR Value2 AC 1 0
SYMATTR InstName V1
SYMATTR Value ""
SYMBOL OpAmps\\opamp 288 48 R0
SYMATTR InstName U1
SYMBOL res 0 80 R90
WINDOW 0 0 56 VBottom 2
WINDOW 3 32 56 VTop 2
SYMATTR InstName R1
SYMATTR Value 100k
SYMBOL res 192 80 R90
WINDOW 0 0 56 VBottom 2
WINDOW 3 32 56 VTop 2
SYMATTR InstName R2
SYMATTR Value 100k
SYMBOL res 64 64 R180
WINDOW 0 36 76 Left 2
WINDOW 3 36 40 Left 2
SYMATTR InstName R3
SYMATTR Value 100k
SYMBOL cap 32 144 R0
SYMATTR InstName C1
SYMATTR Value 31.83n
SYMBOL cap 192 -32 R0
SYMATTR InstName C2
SYMATTR Value 3.5n
TEXT 240 208 Left 2 !.lib opamp.sub
TEXT 240 240 Left 2 !.ac dec 1000 1 20k
