Version 4
SHEET 1 880 680
WIRE -16 64 -112 64
WIRE 128 64 64 64
WIRE 256 64 208 64
WIRE 368 64 256 64
WIRE 480 80 432 80
WIRE 512 80 480 80
WIRE 656 80 592 80
WIRE -112 96 -112 64
WIRE 368 96 336 96
WIRE 256 112 256 64
WIRE 656 112 656 80
WIRE 336 160 336 96
WIRE 480 160 480 80
WIRE 480 160 336 160
WIRE -112 208 -112 176
WIRE 256 208 256 176
WIRE 256 208 -112 208
WIRE 656 208 656 176
WIRE 656 208 256 208
WIRE 256 240 256 208
FLAG 256 240 0
SYMBOL voltage -112 80 R0
WINDOW 123 2 153 Left 2
WINDOW 39 0 0 Left 0
SYMATTR InstName V1
SYMATTR Value ""
SYMATTR Value2 AC 1 0
SYMBOL OpAmps\\opamp 400 144 M180
SYMATTR InstName U1
SYMBOL res 80 48 R90
WINDOW 0 0 56 VBottom 2
WINDOW 3 32 56 VTop 2
SYMATTR InstName R1
SYMATTR Value 1
SYMBOL res 608 64 R90
WINDOW 0 0 56 VBottom 2
WINDOW 3 32 56 VTop 2
SYMATTR InstName R2
SYMATTR Value 1.26
SYMBOL cap 240 112 R0
SYMATTR InstName C1
SYMATTR Value 0.63
SYMBOL cap 640 112 R0
SYMATTR InstName C2
SYMATTR Value 0.63
SYMBOL ind 224 48 R90
WINDOW 0 5 56 VBottom 2
WINDOW 3 32 56 VTop 2
SYMATTR InstName L1
SYMATTR Value 1
TEXT -112 264 Left 2 !.lib opamp.sub
TEXT -112 296 Left 2 !.ac dec 1000 1m 10
