Version 4
SHEET 1 880 680
WIRE -48 96 -112 96
WIRE 80 96 32 96
WIRE 192 96 144 96
WIRE 288 96 192 96
WIRE 368 112 352 112
WIRE 400 112 368 112
WIRE 528 112 464 112
WIRE 288 128 272 128
WIRE -112 144 -112 96
WIRE 192 144 192 96
WIRE 528 144 528 112
WIRE 272 160 272 128
WIRE 368 160 368 112
WIRE 368 160 272 160
WIRE -112 256 -112 224
WIRE 192 256 192 224
WIRE 528 256 528 224
FLAG 192 256 0
FLAG 528 256 0
FLAG -112 256 0
FLAG -112 96 Vi
FLAG 528 112 Vo
SYMBOL res 48 80 R90
WINDOW 0 0 56 VBottom 2
WINDOW 3 32 56 VTop 2
SYMATTR InstName R1
SYMATTR Value 1
SYMBOL res 544 240 R180
WINDOW 0 36 76 Left 2
WINDOW 3 36 40 Left 2
SYMATTR InstName R2
SYMATTR Value 1
SYMBOL cap 144 80 R90
WINDOW 0 0 32 VBottom 2
WINDOW 3 32 32 VTop 2
SYMATTR InstName C1
SYMATTR Value {C}
SYMBOL cap 464 96 R90
WINDOW 0 0 32 VBottom 2
WINDOW 3 32 32 VTop 2
SYMATTR InstName C2
SYMATTR Value {C}
SYMBOL ind 176 128 R0
SYMATTR InstName L1
SYMATTR Value {L}
SYMBOL OpAmps\\opamp 320 176 M180
SYMATTR InstName U1
SYMBOL voltage -112 128 R0
WINDOW 123 25 96 Left 2
WINDOW 39 0 0 Left 0
SYMATTR InstName V1
SYMATTR Value ""
SYMATTR Value2 AC 1
TEXT -64 296 Left 2 !.lib opamp.sub
TEXT 0 -32 Left 2 ;TS4 - Simulacion circuital de Punto 3
TEXT -96 0 Left 2 ;Filtro pasa altos con estructuras pasivas, orden n=3
TEXT -64 272 Left 2 !.ac dec 1000 0.1 5
TEXT 576 144 Left 2 !.param f = 1
TEXT 576 168 Left 2 !.param w0 = 2*pi*f
TEXT 576 192 Left 2 !.param L = 1.251 / w0
TEXT 576 216 Left 2 !.param C = 1.253 / w0
